Version 4
SHEET 1 880 680
WIRE 208 96 64 96
WIRE 400 96 288 96
WIRE 64 144 64 96
WIRE 400 144 400 96
WIRE 64 272 64 224
WIRE 400 272 400 208
WIRE 400 272 64 272
FLAG 400 272 0
FLAG 400 96 Vin
SYMBOL voltage 64 128 R0
WINDOW 123 0 0 Left 0
WINDOW 39 0 0 Left 0
SYMATTR InstName V1
SYMATTR Value PULSE(0 5 0 10n 10n 5m 20m)
SYMBOL res 304 80 R90
WINDOW 0 0 56 VBottom 2
WINDOW 3 32 56 VTop 2
SYMATTR InstName R1
SYMATTR Value 10k
SYMBOL cap 384 144 R0
SYMATTR InstName C1
SYMATTR Value 0.1µ
TEXT -8 296 Left 2 !.tran 0.1
