Version 4
SHEET 1 880 680
WIRE 224 64 80 64
WIRE 400 64 304 64
WIRE 80 128 80 64
WIRE 400 128 400 64
WIRE 80 272 80 208
WIRE 400 272 400 208
WIRE 400 272 80 272
FLAG 80 272 0
FLAG 400 64 vin
SYMBOL voltage 80 112 R0
WINDOW 123 0 0 Left 0
WINDOW 39 0 0 Left 0
SYMATTR InstName V1
SYMATTR Value PULSE(0 5 1n 10n 20n 1m 20m)
SYMBOL ind 384 112 R0
SYMATTR InstName L1
SYMATTR Value 0.1
SYMBOL res 320 48 R90
WINDOW 0 0 56 VBottom 2
WINDOW 3 32 56 VTop 2
SYMATTR InstName R1
SYMATTR Value 10k
TEXT 24 320 Left 2 !.tran 0.1
