Version 4
SHEET 1 880 680
WIRE 208 80 96 80
WIRE 400 80 288 80
WIRE 560 80 464 80
WIRE 560 112 560 80
WIRE 96 128 96 80
WIRE 96 240 96 208
WIRE 352 240 96 240
WIRE 560 240 560 192
WIRE 560 240 352 240
WIRE 352 288 352 240
FLAG 352 288 0
SYMBOL voltage 96 112 R0
WINDOW 123 0 0 Left 0
WINDOW 39 0 0 Left 0
SYMATTR InstName V1
SYMATTR Value PULSE(0 1 0 1 0 0 1)
SYMBOL res 304 64 R90
WINDOW 0 0 56 VBottom 2
WINDOW 3 32 56 VTop 2
SYMATTR InstName R1
SYMATTR Value 1k
SYMBOL cap 464 64 R90
WINDOW 0 0 32 VBottom 2
WINDOW 3 32 32 VTop 2
SYMATTR InstName C1
SYMATTR Value 100µ
SYMBOL ind 544 96 R0
SYMATTR InstName L1
SYMATTR Value 0.1
TEXT 64 272 Left 2 !.tran 0.1
